Using: /mnt/apps/public/COE/synopsys_apps/hspice/S-2021.09/hspice/linux64/hspice  -i '/afs/unity.ncsu.edu/users/r/rsekani/bin/ece546/project/project_new/SRAM_design_new/simulation/mylib,bit_cell_array,schematic/history_1/simulation/HSPICE_default/HSPICE/nominal/netlist/input.spi' -o hspice

>info:         ***** hspice job concluded
