Using: /mnt/apps/public/COE/synopsys_apps/hspice/S-2021.09/hspice/linux64/hspice  -i '/afs/unity.ncsu.edu/users/r/rsekani/bin/ece546/project/project/simulation/mylib,bitcell_TB,schematic/history_1/simulation/HSPICE_default/PrimeSimHSPICE/nominal/netlist/input.spi' -o hspice

>info:         ***** hspice job concluded
